PV_Scenarios/PV_combined/scenario_75_combined/PV_combined50per.txt
New PVSystem.PV_1 phases=1 bus1=G2000UK1100_N283753_sec_1.3 kV=0.24 kVA=3.12 irradiance=1 Pmpp=2.6 %cutin=0.1 %cutout=0.1
New PVSystem.PV_2 phases=1 bus1=G2000UL3200_N283772_sec_3.2 kV=0.24 kVA=6.48 irradiance=1 Pmpp=5.4 %cutin=0.1 %cutout=0.1
New PVSystem.PV_3 phases=1 bus1=G2000VH9500_N283675_sec_4.2 kV=0.24 kVA=11.76 irradiance=1 Pmpp=9.8 %cutin=0.1 %cutout=0.1
New PVSystem.PV_4 phases=1 bus1=G2000VI6200_N283684_sec_2.2 kV=0.24 kVA=6.84 irradiance=1 Pmpp=5.7 %cutin=0.1 %cutout=0.1
New PVSystem.PV_5 phases=1 bus1=G2000VJ0200_N283716_sec_3.2 kV=0.24 kVA=6.84 irradiance=1 Pmpp=5.7 %cutin=0.1 %cutout=0.1
New PVSystem.PV_6 phases=1 bus1=G2000XG5800_N283612_sec_2.3 kV=0.24 kVA=2.4023 irradiance=1 Pmpp=2.0019 %cutin=0.1 %cutout=0.1
New PVSystem.PV_7 phases=1 bus1=G2001RH0400_N274403_sec_2.2 kV=0.24 kVA=8.64 irradiance=1 Pmpp=7.2 %cutin=0.1 %cutout=0.1
New PVSystem.PV_8 phases=1 bus1=G2001SB8200_N274258_sec_4.3 kV=0.24 kVA=5.04 irradiance=1 Pmpp=4.2 %cutin=0.1 %cutout=0.1
New PVSystem.PV_9 phases=1 bus1=G2001SH3700_N274411_sec_1.1 kV=0.24 kVA=8.04 irradiance=1 Pmpp=6.7 %cutin=0.1 %cutout=0.1
New PVSystem.PV_10 phases=1 bus1=G2001SL1400_N274531_sec_4.2 kV=0.24 kVA=9.9846 irradiance=1 Pmpp=8.3205 %cutin=0.1 %cutout=0.1
New PVSystem.PV_11 phases=1 bus1=G2001TD3700_N274305_sec_4.3 kV=0.24 kVA=6 irradiance=1 Pmpp=5 %cutin=0.1 %cutout=0.1
New PVSystem.PV_12 phases=1 bus1=G2001TJ2100_N274442_sec_2.1 kV=0.24 kVA=3.3128 irradiance=1 Pmpp=2.7606 %cutin=0.1 %cutout=0.1
New PVSystem.PV_13 phases=1 bus1=G2001VA3800_N283914_sec_5.3 kV=0.24 kVA=3 irradiance=1 Pmpp=2.5 %cutin=0.1 %cutout=0.1
New PVSystem.PV_14 phases=1 bus1=G2001XE9200_N284049_sec_2.3 kV=0.24 kVA=5.04 irradiance=1 Pmpp=4.2 %cutin=0.1 %cutout=0.1
New PVSystem.PV_15 phases=1 bus1=G2100AG2100_N283585_sec_2.3 kV=0.24 kVA=2.76 irradiance=1 Pmpp=2.3 %cutin=0.1 %cutout=0.1
New PVSystem.PV_16 phases=1 bus1=G2100AI4900_N283724_sec_4.2 kV=0.24 kVA=12 irradiance=1 Pmpp=10 %cutin=0.1 %cutout=0.1
New PVSystem.PV_17 phases=1 bus1=G2100BL1200_N283774_sec_2.1 kV=0.24 kVA=4.2 irradiance=1 Pmpp=3.5 %cutin=0.1 %cutout=0.1
New PVSystem.PV_18 phases=1 bus1=G2100CH7400_N283632_sec_20.3 kV=0.24 kVA=1.8 irradiance=1 Pmpp=1.5 %cutin=0.1 %cutout=0.1
New PVSystem.PV_19 phases=1 bus1=G2100CK4100_N283759_sec_1.2 kV=0.24 kVA=5.76 irradiance=1 Pmpp=4.8 %cutin=0.1 %cutout=0.1
New PVSystem.PV_20 phases=1 bus1=G2100DG6300_N283589_sec_9.3 kV=0.24 kVA=3.96 irradiance=1 Pmpp=3.3 %cutin=0.1 %cutout=0.1
New PVSystem.PV_21 phases=1 bus1=G2100DJ7200_N292334_sec_3.2 kV=0.24 kVA=6.026 irradiance=1 Pmpp=5.0217 %cutin=0.1 %cutout=0.1
New PVSystem.PV_22 phases=1 bus1=G2100DL9800_N283744_sec_8.2 kV=0.24 kVA=7.68 irradiance=1 Pmpp=6.4 %cutin=0.1 %cutout=0.1
New PVSystem.PV_23 phases=1 bus1=G2100DN4800_N283861_sec_36.3 kV=0.24 kVA=2.4 irradiance=1 Pmpp=2 %cutin=0.1 %cutout=0.1
New PVSystem.PV_24 phases=1 bus1=G2100DN4800_N283861_sec_55.3 kV=0.24 kVA=1.92 irradiance=1 Pmpp=1.6 %cutin=0.1 %cutout=0.1
New PVSystem.PV_25 phases=1 bus1=G2100EK1100_N292334_sec_4.2 kV=0.24 kVA=6.48 irradiance=1 Pmpp=5.4 %cutin=0.1 %cutout=0.1
New PVSystem.PV_26 phases=1 bus1=G2100EM2500_N292390_sec_1.2 kV=0.24 kVA=11.04 irradiance=1 Pmpp=9.2 %cutin=0.1 %cutout=0.1
New PVSystem.PV_27 phases=1 bus1=G2100EM6500_N292425_sec_2.3 kV=0.24 kVA=2.16 irradiance=1 Pmpp=1.8 %cutin=0.1 %cutout=0.1
New PVSystem.PV_28 phases=1 bus1=G2100EN2200_N292457_sec_30.3 kV=0.24 kVA=1.08 irradiance=1 Pmpp=0.9 %cutin=0.1 %cutout=0.1
New PVSystem.PV_29 phases=1 bus1=G2100EN2200_N292457_sec_36.3 kV=0.24 kVA=6.6 irradiance=1 Pmpp=5.5 %cutin=0.1 %cutout=0.1
New PVSystem.PV_30 phases=1 bus1=G2100FI2200_N292320_sec_1.2 kV=0.24 kVA=7.4345 irradiance=1 Pmpp=6.1954 %cutin=0.1 %cutout=0.1
New PVSystem.PV_31 phases=3 conn = delta bus1=G2100FO5600_N292520_sec_5.1.2.3 kV=0.48 kVA=31.56 irradiance=1 Pmpp=26.3 %cutin=0.1 %cutout=0.1
New PVSystem.PV_32 phases=1 bus1=G2100HN5600_N292453_sec_6.3 kV=0.24 kVA=2.16 irradiance=1 Pmpp=1.8 %cutin=0.1 %cutout=0.1
New PVSystem.PV_33 phases=1 bus1=G2100HN5600_N292453_sec_59.3 kV=0.24 kVA=3 irradiance=1 Pmpp=2.5 %cutin=0.1 %cutout=0.1
New PVSystem.PV_34 phases=1 bus1=G2100IM6700_N292430_sec_24.3 kV=0.24 kVA=2.76 irradiance=1 Pmpp=2.3 %cutin=0.1 %cutout=0.1
New PVSystem.PV_35 phases=1 bus1=G2100IN2700_N292475_sec_1.3 kV=0.24 kVA=0.96 irradiance=1 Pmpp=0.8 %cutin=0.1 %cutout=0.1
New PVSystem.PV_36 phases=1 bus1=G2100IN7700_N292438_sec_19.3 kV=0.24 kVA=2.04 irradiance=1 Pmpp=1.7 %cutin=0.1 %cutout=0.1
New PVSystem.PV_37 phases=3 conn = delta bus1=G2100NI4800_N300455_sec_1.1.2.3 kV=0.48 kVA=205.44 irradiance=1 Pmpp=171.2 %cutin=0.1 %cutout=0.1
New PVSystem.PV_38 phases=1 bus1=G2100NL6900_N300504_sec_3.1 kV=0.24 kVA=4.32 irradiance=1 Pmpp=3.6 %cutin=0.1 %cutout=0.1
New PVSystem.PV_39 phases=1 bus1=G2100NN4200_N300548_sec_3.3 kV=0.24 kVA=0.96 irradiance=1 Pmpp=0.8 %cutin=0.1 %cutout=0.1
New PVSystem.PV_40 phases=1 bus1=G2100PN0800_N300563_sec_5.1 kV=0.24 kVA=5.88 irradiance=1 Pmpp=4.9 %cutin=0.1 %cutout=0.1
New PVSystem.PV_41 phases=1 bus1=G2100QP2300_N300614_sec_3.1 kV=0.24 kVA=4.08 irradiance=1 Pmpp=3.4 %cutin=0.1 %cutout=0.1
New PVSystem.PV_42 phases=1 bus1=G2100QP9600_N300587_sec_4.2 kV=0.24 kVA=3.72 irradiance=1 Pmpp=3.1 %cutin=0.1 %cutout=0.1
New PVSystem.PV_43 phases=1 bus1=G2100RL8500_N312282_sec_5.2 kV=0.24 kVA=1.44 irradiance=1 Pmpp=1.2 %cutin=0.1 %cutout=0.1
New PVSystem.PV_44 phases=1 bus1=G2100RN1800_N300557_sec_2.3 kV=0.24 kVA=2.76 irradiance=1 Pmpp=2.3 %cutin=0.1 %cutout=0.1
New PVSystem.PV_45 phases=1 bus1=G2100RN9500_N312395_sec_1.3 kV=0.24 kVA=3.36 irradiance=1 Pmpp=2.8 %cutin=0.1 %cutout=0.1
New PVSystem.PV_46 phases=1 bus1=G2101AC9800_N283938_sec_2.3 kV=0.24 kVA=4.08 irradiance=1 Pmpp=3.4 %cutin=0.1 %cutout=0.1
New PVSystem.PV_47 phases=1 bus1=G2101BC7200_N283931_sec_13.1 kV=0.24 kVA=6.72 irradiance=1 Pmpp=5.6 %cutin=0.1 %cutout=0.1
New PVSystem.PV_48 phases=1 bus1=G2101BE0100_N284030_sec_1.3 kV=0.24 kVA=3.96 irradiance=1 Pmpp=3.3 %cutin=0.1 %cutout=0.1
New PVSystem.PV_49 phases=1 bus1=G2101BL8500_N284244_sec_2.1 kV=0.24 kVA=4.56 irradiance=1 Pmpp=3.8 %cutin=0.1 %cutout=0.1
New PVSystem.PV_50 phases=1 bus1=G2101BN4800_N284308_sec_2.1 kV=0.24 kVA=3.4181 irradiance=1 Pmpp=2.8484 %cutin=0.1 %cutout=0.1
New PVSystem.PV_51 phases=1 bus1=G2101CC0600_N283951_sec_4.3 kV=0.24 kVA=3.96 irradiance=1 Pmpp=3.3 %cutin=0.1 %cutout=0.1
New PVSystem.PV_52 phases=1 bus1=G2101DC0100_N283946_sec_3.1 kV=0.24 kVA=5.28 irradiance=1 Pmpp=4.4 %cutin=0.1 %cutout=0.1
New PVSystem.PV_53 phases=1 bus1=G2101DO1900_N284309_sec_3.1 kV=0.24 kVA=4.68 irradiance=1 Pmpp=3.9 %cutin=0.1 %cutout=0.1
New PVSystem.PV_54 phases=1 bus1=G2101EC1500_N292602_sec_2.1 kV=0.24 kVA=4.32 irradiance=1 Pmpp=3.6 %cutin=0.1 %cutout=0.1
New PVSystem.PV_55 phases=1 bus1=G2101EC2600_N292649_sec_2.1 kV=0.24 kVA=5.6504 irradiance=1 Pmpp=4.7087 %cutin=0.1 %cutout=0.1
New PVSystem.PV_56 phases=1 bus1=G2101EE3400_N284041_sec_1.2 kV=0.24 kVA=11.3558 irradiance=1 Pmpp=9.4632 %cutin=0.1 %cutout=0.1
New PVSystem.PV_57 phases=1 bus1=G2101EM2300_N284270_sec_3.1 kV=0.24 kVA=6.84 irradiance=1 Pmpp=5.7 %cutin=0.1 %cutout=0.1
New PVSystem.PV_58 phases=1 bus1=G2101FC8400_N292612_sec_13.2 kV=0.24 kVA=6 irradiance=1 Pmpp=5 %cutin=0.1 %cutout=0.1
New PVSystem.PV_59 phases=1 bus1=G2101FC9500_N292618_sec_12.1 kV=0.24 kVA=1.8 irradiance=1 Pmpp=1.5 %cutin=0.1 %cutout=0.1
New PVSystem.PV_60 phases=1 bus1=G2101GC3400_N292625_sec_20.1 kV=0.24 kVA=6.12 irradiance=1 Pmpp=5.1 %cutin=0.1 %cutout=0.1
New PVSystem.PV_61 phases=1 bus1=G2101GC3400_N292625_sec_21.1 kV=0.24 kVA=3 irradiance=1 Pmpp=2.5 %cutin=0.1 %cutout=0.1
New PVSystem.PV_62 phases=1 bus1=G2101GD6200_N292642_sec_6.1 kV=0.24 kVA=2.04 irradiance=1 Pmpp=1.7 %cutin=0.1 %cutout=0.1
New PVSystem.PV_63 phases=1 bus1=G2101GD6200_N292642_sec_21.1 kV=0.24 kVA=1.2 irradiance=1 Pmpp=1 %cutin=0.1 %cutout=0.1
New PVSystem.PV_64 phases=1 bus1=G2101HB7500_N292585_sec_6.1 kV=0.24 kVA=6.12 irradiance=1 Pmpp=5.1 %cutin=0.1 %cutout=0.1
New PVSystem.PV_65 phases=1 bus1=G2101HD1100_N292645_sec_6.1 kV=0.24 kVA=2.28 irradiance=1 Pmpp=1.9 %cutin=0.1 %cutout=0.1
New PVSystem.PV_66 phases=1 bus1=G2101HD1100_N292645_sec_16.1 kV=0.24 kVA=1.92 irradiance=1 Pmpp=1.6 %cutin=0.1 %cutout=0.1
New PVSystem.PV_67 phases=1 bus1=G2101HG3400_N1406188_sec_5.1 kV=0.24 kVA=8.88 irradiance=1 Pmpp=7.4 %cutin=0.1 %cutout=0.1
New PVSystem.PV_68 phases=1 bus1=G2101IJ8600_N292802_sec_1.3 kV=0.24 kVA=3.96 irradiance=1 Pmpp=3.3 %cutin=0.1 %cutout=0.1
New PVSystem.PV_69 phases=1 bus1=G2101IK4600_N300997_sec_3.3 kV=0.24 kVA=11.16 irradiance=1 Pmpp=9.3 %cutin=0.1 %cutout=0.1
New PVSystem.PV_70 phases=3 conn = delta bus1=G2101JA6700_N1321243_sec_10.1.2.3 kV=0.48 kVA=12 irradiance=1 Pmpp=10 %cutin=0.1 %cutout=0.1
New PVSystem.PV_71 phases=1 bus1=G2101KA0900_N300672_sec_17.1 kV=0.24 kVA=4.08 irradiance=1 Pmpp=3.4 %cutin=0.1 %cutout=0.1
New PVSystem.PV_72 phases=1 bus1=G2101KA2300_N300631_sec_10.1 kV=0.24 kVA=2.16 irradiance=1 Pmpp=1.8 %cutin=0.1 %cutout=0.1
New PVSystem.PV_73 phases=1 bus1=G2101KA3900_N300679_sec_6.1 kV=0.24 kVA=3.72 irradiance=1 Pmpp=3.1 %cutin=0.1 %cutout=0.1
New PVSystem.PV_74 phases=1 bus1=G2101PB5100_N300681_sec_4.1 kV=0.24 kVA=3.96 irradiance=1 Pmpp=3.3 %cutin=0.1 %cutout=0.1
New PVSystem.PV_75 phases=1 bus1=G2101PC7200_N300740_sec_3.3 kV=0.24 kVA=3.84 irradiance=1 Pmpp=3.2 %cutin=0.1 %cutout=0.1
New PVSystem.PV_76 phases=1 bus1=G2101PC8800_N300762_sec_2.3 kV=0.24 kVA=3.36 irradiance=1 Pmpp=2.8 %cutin=0.1 %cutout=0.1
New PVSystem.PV_77 phases=1 bus1=G2101SB1800_N312602_sec_2.1 kV=0.24 kVA=4.2 irradiance=1 Pmpp=3.5 %cutin=0.1 %cutout=0.1
New PVSystem.PV_78 phases=1 bus1=G2102AD8800_N284346_sec_1.1 kV=0.24 kVA=8.7096 irradiance=1 Pmpp=7.258 %cutin=0.1 %cutout=0.1
New PVSystem.PV_79 phases=1 bus1=G2000SO9800_N274224_sec_4.3 kV=0.24 kVA=7.6181 irradiance=1 Pmpp=6.3484 %cutin=0.1 %cutout=0.1
New PVSystem.PV_80 phases=1 bus1=G2000UI5400_N283699_sec_6.3 kV=0.24 kVA=3.12 irradiance=1 Pmpp=2.6 %cutin=0.1 %cutout=0.1
New PVSystem.PV_81 phases=1 bus1=G2000WI4400_N283710_sec_6.2 kV=0.24 kVA=9.3984 irradiance=1 Pmpp=7.832 %cutin=0.1 %cutout=0.1
New PVSystem.PV_82 phases=1 bus1=G2000WN3300_N283848_sec_2.2 kV=0.24 kVA=14.4 irradiance=1 Pmpp=12 %cutin=0.1 %cutout=0.1
New PVSystem.PV_83 phases=1 bus1=G2000XO7000_N283918_sec_4.3 kV=0.24 kVA=2.04 irradiance=1 Pmpp=1.7 %cutin=0.1 %cutout=0.1
New PVSystem.PV_84 phases=1 bus1=G2000YI1900_N283701_sec_1.1 kV=0.24 kVA=4.56 irradiance=1 Pmpp=3.8 %cutin=0.1 %cutout=0.1
New PVSystem.PV_85 phases=1 bus1=G2001SI3300_N274448_sec_6.1 kV=0.24 kVA=3.84 irradiance=1 Pmpp=3.2 %cutin=0.1 %cutout=0.1
New PVSystem.PV_86 phases=1 bus1=G2001TB6700_N274269_sec_1.3 kV=0.24 kVA=3.36 irradiance=1 Pmpp=2.8 %cutin=0.1 %cutout=0.1
New PVSystem.PV_87 phases=1 bus1=G2001VA3800_N283914_sec_6.3 kV=0.24 kVA=4.92 irradiance=1 Pmpp=4.1 %cutin=0.1 %cutout=0.1
New PVSystem.PV_88 phases=1 bus1=G2001VB5300_N283949_sec_3.3 kV=0.24 kVA=5.88 irradiance=1 Pmpp=4.9 %cutin=0.1 %cutout=0.1
New PVSystem.PV_89 phases=1 bus1=G2001WA2400_N283917_sec_4.3 kV=0.24 kVA=4.3045 irradiance=1 Pmpp=3.5871 %cutin=0.1 %cutout=0.1
New PVSystem.PV_90 phases=1 bus1=G2001WC7300_N283986_sec_5.3 kV=0.24 kVA=5.4 irradiance=1 Pmpp=4.5 %cutin=0.1 %cutout=0.1
New PVSystem.PV_91 phases=1 bus1=G2001WJ8500_N284214_sec_1.3 kV=0.24 kVA=12.84 irradiance=1 Pmpp=10.7 %cutin=0.1 %cutout=0.1
New PVSystem.PV_92 phases=1 bus1=G2001XC7500_N283961_sec_3.3 kV=0.24 kVA=6.84 irradiance=1 Pmpp=5.7 %cutin=0.1 %cutout=0.1
New PVSystem.PV_93 phases=1 bus1=G2001XE7600_N284065_sec_5.1 kV=0.24 kVA=8.28 irradiance=1 Pmpp=6.9 %cutin=0.1 %cutout=0.1
New PVSystem.PV_94 phases=1 bus1=G2001XJ9600_N284217_sec_4.3 kV=0.24 kVA=6 irradiance=1 Pmpp=5 %cutin=0.1 %cutout=0.1
New PVSystem.PV_95 phases=1 bus1=G2002AD4400_N284341_sec_3.1 kV=0.24 kVA=7.56 irradiance=1 Pmpp=6.3 %cutin=0.1 %cutout=0.1
New PVSystem.PV_96 phases=1 bus1=G2100AE9900_N283556_sec_4.3 kV=0.24 kVA=3.36 irradiance=1 Pmpp=2.8 %cutin=0.1 %cutout=0.1
New PVSystem.PV_97 phases=1 bus1=G2100AH6800_N283651_sec_6.3 kV=0.24 kVA=3.24 irradiance=1 Pmpp=2.7 %cutin=0.1 %cutout=0.1
New PVSystem.PV_98 phases=1 bus1=G2100AH8200_N283618_sec_1.3 kV=0.24 kVA=5.28 irradiance=1 Pmpp=4.4 %cutin=0.1 %cutout=0.1
New PVSystem.PV_99 phases=1 bus1=G2100AL3200_N283770_sec_2.1 kV=0.24 kVA=7.56 irradiance=1 Pmpp=6.3 %cutin=0.1 %cutout=0.1
New PVSystem.PV_100 phases=1 bus1=G2100BH3900_N283665_sec_8.3 kV=0.24 kVA=6 irradiance=1 Pmpp=5 %cutin=0.1 %cutout=0.1
New PVSystem.PV_101 phases=1 bus1=G2100BJ1200_N283713_sec_1.1 kV=0.24 kVA=5.88 irradiance=1 Pmpp=4.9 %cutin=0.1 %cutout=0.1
New PVSystem.PV_102 phases=3 conn = delta bus1=G2100CI6400_N283690_sec_1.1.2.3 kV=0.48 kVA=0.48 irradiance=1 Pmpp=0.4 %cutin=0.1 %cutout=0.1
New PVSystem.PV_103 phases=1 bus1=G2100CM0100_N283805_sec_1.1 kV=0.24 kVA=6.72 irradiance=1 Pmpp=5.6 %cutin=0.1 %cutout=0.1
New PVSystem.PV_104 phases=1 bus1=G2100CN9200_N283841_sec_2.3 kV=0.24 kVA=1.44 irradiance=1 Pmpp=1.2 %cutin=0.1 %cutout=0.1
New PVSystem.PV_105 phases=1 bus1=G2100CO8200_N283869_sec_6.3 kV=0.24 kVA=3 irradiance=1 Pmpp=2.5 %cutin=0.1 %cutout=0.1
New PVSystem.PV_106 phases=1 bus1=G2100CO8200_N283869_sec_9.3 kV=0.24 kVA=2.64 irradiance=1 Pmpp=2.2 %cutin=0.1 %cutout=0.1
New PVSystem.PV_107 phases=1 bus1=G2100EM2500_N292390_sec_10.2 kV=0.24 kVA=6.72 irradiance=1 Pmpp=5.6 %cutin=0.1 %cutout=0.1
New PVSystem.PV_108 phases=1 bus1=G2100EN2200_N292457_sec_20.3 kV=0.24 kVA=5.04 irradiance=1 Pmpp=4.2 %cutin=0.1 %cutout=0.1
New PVSystem.PV_109 phases=1 bus1=G2100EN8600_N292479_sec_7.3 kV=0.24 kVA=2.28 irradiance=1 Pmpp=1.9 %cutin=0.1 %cutout=0.1
New PVSystem.PV_110 phases=1 bus1=G2100EO1300_N292510_sec_9.3 kV=0.24 kVA=2.16 irradiance=1 Pmpp=1.8 %cutin=0.1 %cutout=0.1
New PVSystem.PV_111 phases=3 conn = delta bus1=G2100FJ3800_N292380_sec_17.1.2.3 kV=0.48 kVA=8.88 irradiance=1 Pmpp=7.4 %cutin=0.1 %cutout=0.1
New PVSystem.PV_112 phases=3 conn = delta bus1=G2100FJ4400_N292396_sec_7.1.2.3 kV=0.48 kVA=53.4 irradiance=1 Pmpp=44.5 %cutin=0.1 %cutout=0.1
New PVSystem.PV_113 phases=1 bus1=G2100GM9700_N292423_sec_6.3 kV=0.24 kVA=4.2 irradiance=1 Pmpp=3.5 %cutin=0.1 %cutout=0.1
New PVSystem.PV_114 phases=1 bus1=G2100HM3200_N292420_sec_16.3 kV=0.24 kVA=3.36 irradiance=1 Pmpp=2.8 %cutin=0.1 %cutout=0.1
New PVSystem.PV_115 phases=1 bus1=G2100HM3200_N292420_sec_19.3 kV=0.24 kVA=0.36 irradiance=1 Pmpp=0.3 %cutin=0.1 %cutout=0.1
New PVSystem.PV_116 phases=1 bus1=G2100HM9900_N292433_sec_6.3 kV=0.24 kVA=2.88 irradiance=1 Pmpp=2.4 %cutin=0.1 %cutout=0.1
New PVSystem.PV_117 phases=1 bus1=G2100HM9900_N292433_sec_8.3 kV=0.24 kVA=5.28 irradiance=1 Pmpp=4.4 %cutin=0.1 %cutout=0.1
New PVSystem.PV_118 phases=1 bus1=G2100HM9900_N292433_sec_20.3 kV=0.24 kVA=1.08 irradiance=1 Pmpp=0.9 %cutin=0.1 %cutout=0.1
New PVSystem.PV_119 phases=1 bus1=G2100HN5600_N292453_sec_10.3 kV=0.24 kVA=0.6 irradiance=1 Pmpp=0.5 %cutin=0.1 %cutout=0.1
New PVSystem.PV_120 phases=1 bus1=G2100IL1000_N292412_sec_28.3 kV=0.24 kVA=2.88 irradiance=1 Pmpp=2.4 %cutin=0.1 %cutout=0.1
New PVSystem.PV_121 phases=1 bus1=G2100IN2700_N292475_sec_11.3 kV=0.24 kVA=1.68 irradiance=1 Pmpp=1.4 %cutin=0.1 %cutout=0.1
New PVSystem.PV_122 phases=1 bus1=G2100IN7700_N292438_sec_35.3 kV=0.24 kVA=2.88 irradiance=1 Pmpp=2.4 %cutin=0.1 %cutout=0.1
New PVSystem.PV_123 phases=3 conn = delta bus1=G2100KO6600_N300582_sec_3.1.2.3 kV=0.48 kVA=20.88 irradiance=1 Pmpp=17.4 %cutin=0.1 %cutout=0.1
New PVSystem.PV_124 phases=1 bus1=G2100NM6600_N300513_sec_8.1 kV=0.24 kVA=1.92 irradiance=1 Pmpp=1.6 %cutin=0.1 %cutout=0.1
New PVSystem.PV_125 phases=1 bus1=G2100PA2100_N300606_sec_1.1 kV=0.24 kVA=4.44 irradiance=1 Pmpp=3.7 %cutin=0.1 %cutout=0.1
New PVSystem.PV_126 phases=1 bus1=G2100QM7500_N300522_sec_3.3 kV=0.24 kVA=2.28 irradiance=1 Pmpp=1.9 %cutin=0.1 %cutout=0.1
New PVSystem.PV_127 phases=1 bus1=G2101BD1200_N284013_sec_3.2 kV=0.24 kVA=8.2222 irradiance=1 Pmpp=6.8518 %cutin=0.1 %cutout=0.1
New PVSystem.PV_128 phases=1 bus1=G2101CJ2700_N284206_sec_2.1 kV=0.24 kVA=4.08 irradiance=1 Pmpp=3.4 %cutin=0.1 %cutout=0.1
New PVSystem.PV_129 phases=1 bus1=G2101CM7500_N284275_sec_1.1 kV=0.24 kVA=5.76 irradiance=1 Pmpp=4.8 %cutin=0.1 %cutout=0.1
New PVSystem.PV_130 phases=1 bus1=G2101DC3900_N283999_sec_2.2 kV=0.24 kVA=9.6673 irradiance=1 Pmpp=8.056 %cutin=0.1 %cutout=0.1
New PVSystem.PV_131 phases=1 bus1=G2101DE3600_N284078_sec_1.2 kV=0.24 kVA=14.16 irradiance=1 Pmpp=11.8 %cutin=0.1 %cutout=0.1
New PVSystem.PV_132 phases=1 bus1=G2101DG1700_N284117_sec_2.2 kV=0.24 kVA=6.72 irradiance=1 Pmpp=5.6 %cutin=0.1 %cutout=0.1
New PVSystem.PV_133 phases=1 bus1=G2101EC4900_N292649_sec_2.1 kV=0.24 kVA=15.1636 irradiance=1 Pmpp=12.6363 %cutin=0.1 %cutout=0.1
New PVSystem.PV_134 phases=1 bus1=G2101ED9700_N292597_sec_3.1 kV=0.24 kVA=5.64 irradiance=1 Pmpp=4.7 %cutin=0.1 %cutout=0.1
New PVSystem.PV_135 phases=1 bus1=G2101EM2300_N284270_sec_1.1 kV=0.24 kVA=5.76 irradiance=1 Pmpp=4.8 %cutin=0.1 %cutout=0.1
New PVSystem.PV_136 phases=1 bus1=G2101FC9500_N292618_sec_2.1 kV=0.24 kVA=2.76 irradiance=1 Pmpp=2.3 %cutin=0.1 %cutout=0.1
New PVSystem.PV_137 phases=1 bus1=G2101FD9100_N292643_sec_21.1 kV=0.24 kVA=1.32 irradiance=1 Pmpp=1.1 %cutin=0.1 %cutout=0.1
New PVSystem.PV_138 phases=1 bus1=G2101GC9700_N292633_sec_15.1 kV=0.24 kVA=4.44 irradiance=1 Pmpp=3.7 %cutin=0.1 %cutout=0.1
New PVSystem.PV_139 phases=1 bus1=G2101GD1300_N292637_sec_18.1 kV=0.24 kVA=3.36 irradiance=1 Pmpp=2.8 %cutin=0.1 %cutout=0.1
New PVSystem.PV_140 phases=1 bus1=G2101GD5100_N292637_sec_2.1 kV=0.24 kVA=1.8 irradiance=1 Pmpp=1.5 %cutin=0.1 %cutout=0.1
New PVSystem.PV_141 phases=1 bus1=G2101GD5100_N292637_sec_16.1 kV=0.24 kVA=3.6 irradiance=1 Pmpp=3 %cutin=0.1 %cutout=0.1
New PVSystem.PV_142 phases=1 bus1=G2101GD6200_N292642_sec_12.1 kV=0.24 kVA=2.28 irradiance=1 Pmpp=1.9 %cutin=0.1 %cutout=0.1
New PVSystem.PV_143 phases=1 bus1=G2101HB3400_N292556_sec_1.1 kV=0.24 kVA=1.32 irradiance=1 Pmpp=1.1 %cutin=0.1 %cutout=0.1
New PVSystem.PV_144 phases=1 bus1=G2101HD2900_N292658_sec_10.1 kV=0.24 kVA=2.4 irradiance=1 Pmpp=2 %cutin=0.1 %cutout=0.1
New PVSystem.PV_145 phases=1 bus1=G2101HD3500_N292652_sec_9.1 kV=0.24 kVA=1.32 irradiance=1 Pmpp=1.1 %cutin=0.1 %cutout=0.1
New PVSystem.PV_146 phases=1 bus1=G2101JF1200_N292702_sec_6.1 kV=0.24 kVA=8.64 irradiance=1 Pmpp=7.2 %cutin=0.1 %cutout=0.1
New PVSystem.PV_147 phases=1 bus1=G2101KA2300_N300631_sec_7.1 kV=0.24 kVA=1.32 irradiance=1 Pmpp=1.1 %cutin=0.1 %cutout=0.1
New PVSystem.PV_148 phases=1 bus1=G2101KA2300_N300631_sec_12.1 kV=0.24 kVA=4.2 irradiance=1 Pmpp=3.5 %cutin=0.1 %cutout=0.1
New PVSystem.PV_149 phases=1 bus1=G2101OA2300_N300690_sec_3.3 kV=0.24 kVA=3.72 irradiance=1 Pmpp=3.1 %cutin=0.1 %cutout=0.1
New PVSystem.PV_150 phases=1 bus1=G2101OA5500_N300636_sec_3.1 kV=0.24 kVA=4.68 irradiance=1 Pmpp=3.9 %cutin=0.1 %cutout=0.1
New PVSystem.PV_151 phases=1 bus1=G2101OA5600_N300661_sec_6.1 kV=0.24 kVA=2.88 irradiance=1 Pmpp=2.4 %cutin=0.1 %cutout=0.1
New PVSystem.PV_152 phases=1 bus1=G2101OP2300_N300646_sec_4.1 kV=0.24 kVA=3.84 irradiance=1 Pmpp=3.2 %cutin=0.1 %cutout=0.1
New PVSystem.PV_153 phases=1 bus1=G2101PB2500_N300719_sec_8.3 kV=0.24 kVA=5.0192 irradiance=1 Pmpp=4.1827 %cutin=0.1 %cutout=0.1
New PVSystem.PV_154 phases=1 bus1=G2101PB5100_N300681_sec_5.1 kV=0.24 kVA=5.28 irradiance=1 Pmpp=4.4 %cutin=0.1 %cutout=0.1
New PVSystem.PV_155 phases=1 bus1=G2101QC7600_N300750_sec_3.3 kV=0.24 kVA=3.24 irradiance=1 Pmpp=2.7 %cutin=0.1 %cutout=0.1
New PVSystem.PV_156 phases=1 bus1=G2000RN2800_N274196_sec_2.3 kV=0.24 kVA=5.88 irradiance=1 Pmpp=4.9 %cutin=0.1 %cutout=0.1
New PVSystem.PV_157 phases=1 bus1=G2000UI6400_N283679_sec_2.3 kV=0.24 kVA=2.28 irradiance=1 Pmpp=1.9 %cutin=0.1 %cutout=0.1
New PVSystem.PV_158 phases=1 bus1=G2000UJ3600_N283731_sec_6.2 kV=0.24 kVA=8.88 irradiance=1 Pmpp=7.4 %cutin=0.1 %cutout=0.1
New PVSystem.PV_159 phases=1 bus1=G2000UL7700_N283791_sec_2.2 kV=0.24 kVA=6.24 irradiance=1 Pmpp=5.2 %cutin=0.1 %cutout=0.1
New PVSystem.PV_160 phases=1 bus1=G2000VJ0200_N283716_sec_4.2 kV=0.24 kVA=7.385 irradiance=1 Pmpp=6.1542 %cutin=0.1 %cutout=0.1
New PVSystem.PV_161 phases=1 bus1=G2000VM1500_N283827_sec_2.2 kV=0.24 kVA=5.64 irradiance=1 Pmpp=4.7 %cutin=0.1 %cutout=0.1
New PVSystem.PV_162 phases=1 bus1=G2000XN2900_N283859_sec_1.3 kV=0.24 kVA=2.76 irradiance=1 Pmpp=2.3 %cutin=0.1 %cutout=0.1
New PVSystem.PV_163 phases=1 bus1=G2000YM2700_N283830_sec_1.1 kV=0.24 kVA=4.2 irradiance=1 Pmpp=3.5 %cutin=0.1 %cutout=0.1
New PVSystem.PV_164 phases=1 bus1=G2001SL6300_N274540_sec_2.2 kV=0.24 kVA=10.56 irradiance=1 Pmpp=8.8 %cutin=0.1 %cutout=0.1
New PVSystem.PV_165 phases=1 bus1=G2001UB4400_N283904_sec_3.3 kV=0.24 kVA=4.2 irradiance=1 Pmpp=3.5 %cutin=0.1 %cutout=0.1
New PVSystem.PV_166 phases=1 bus1=G2001UD7700_N284028_sec_3.3 kV=0.24 kVA=3 irradiance=1 Pmpp=2.5 %cutin=0.1 %cutout=0.1
New PVSystem.PV_167 phases=1 bus1=G2001UJ5100_N284204_sec_1.2 kV=0.24 kVA=8.0107 irradiance=1 Pmpp=6.6756 %cutin=0.1 %cutout=0.1
New PVSystem.PV_168 phases=1 bus1=G2001VB5300_N283949_sec_2.3 kV=0.24 kVA=5.28 irradiance=1 Pmpp=4.4 %cutin=0.1 %cutout=0.1
New PVSystem.PV_169 phases=1 bus1=G2001XB6700_N283943_sec_5.3 kV=0.24 kVA=2.04 irradiance=1 Pmpp=1.7 %cutin=0.1 %cutout=0.1
New PVSystem.PV_170 phases=1 bus1=G2001XB6700_N283943_sec_6.3 kV=0.24 kVA=8.28 irradiance=1 Pmpp=6.9 %cutin=0.1 %cutout=0.1
New PVSystem.PV_171 phases=1 bus1=G2001XJ9600_N284217_sec_8.3 kV=0.24 kVA=6.72 irradiance=1 Pmpp=5.6 %cutin=0.1 %cutout=0.1
New PVSystem.PV_172 phases=1 bus1=G2001YA0300_N283918_sec_4.3 kV=0.24 kVA=5.28 irradiance=1 Pmpp=4.4 %cutin=0.1 %cutout=0.1
New PVSystem.PV_173 phases=1 bus1=G2001YA0800_N283921_sec_2.3 kV=0.24 kVA=3.96 irradiance=1 Pmpp=3.3 %cutin=0.1 %cutout=0.1
New PVSystem.PV_174 phases=1 bus1=G2001YN2500_N284289_sec_1.1 kV=0.24 kVA=0 irradiance=1 Pmpp=0 %cutin=0.1 %cutout=0.1
New PVSystem.PV_175 phases=1 bus1=G2100AE4800_N283558_sec_6.3 kV=0.24 kVA=2.04 irradiance=1 Pmpp=1.7 %cutin=0.1 %cutout=0.1
New PVSystem.PV_176 phases=1 bus1=G2100AH2000_N283617_sec_1.3 kV=0.24 kVA=5.88 irradiance=1 Pmpp=4.9 %cutin=0.1 %cutout=0.1
New PVSystem.PV_177 phases=1 bus1=G2100AM6300_N283820_sec_1.1 kV=0.24 kVA=6.96 irradiance=1 Pmpp=5.8 %cutin=0.1 %cutout=0.1
New PVSystem.PV_178 phases=1 bus1=G2100BH3900_N283665_sec_2.3 kV=0.24 kVA=3.12 irradiance=1 Pmpp=2.6 %cutin=0.1 %cutout=0.1
New PVSystem.PV_179 phases=1 bus1=G2100BJ2200_N283714_sec_3.2 kV=0.24 kVA=5.4 irradiance=1 Pmpp=4.5 %cutin=0.1 %cutout=0.1
New PVSystem.PV_180 phases=1 bus1=G2100BJ7400_N283728_sec_7.2 kV=0.24 kVA=3.6427 irradiance=1 Pmpp=3.0355 %cutin=0.1 %cutout=0.1
New PVSystem.PV_181 phases=1 bus1=G2100CH7400_N283632_sec_16.3 kV=0.24 kVA=3.1594 irradiance=1 Pmpp=2.6328 %cutin=0.1 %cutout=0.1
New PVSystem.PV_182 phases=1 bus1=G2100CI4600_N283694_sec_2.2 kV=0.24 kVA=12 irradiance=1 Pmpp=10 %cutin=0.1 %cutout=0.1
New PVSystem.PV_183 phases=1 bus1=G2100CK4100_N283759_sec_5.2 kV=0.24 kVA=4.68 irradiance=1 Pmpp=3.9 %cutin=0.1 %cutout=0.1
New PVSystem.PV_184 phases=1 bus1=G2100CO8200_N283869_sec_1.3 kV=0.24 kVA=2.4 irradiance=1 Pmpp=2 %cutin=0.1 %cutout=0.1
New PVSystem.PV_185 phases=1 bus1=G2100CO8200_N283869_sec_3.3 kV=0.24 kVA=3.24 irradiance=1 Pmpp=2.7 %cutin=0.1 %cutout=0.1
New PVSystem.PV_186 phases=1 bus1=G2100DG3700_N283614_sec_18.3 kV=0.24 kVA=3.12 irradiance=1 Pmpp=2.6 %cutin=0.1 %cutout=0.1
New PVSystem.PV_187 phases=1 bus1=G2100DG6300_N283589_sec_4.3 kV=0.24 kVA=0.96 irradiance=1 Pmpp=0.8 %cutin=0.1 %cutout=0.1
New PVSystem.PV_188 phases=1 bus1=G2100DN4800_N283861_sec_50.3 kV=0.24 kVA=1.68 irradiance=1 Pmpp=1.4 %cutin=0.1 %cutout=0.1
New PVSystem.PV_189 phases=1 bus1=G2100EG8500_N292275_sec_1.3 kV=0.24 kVA=3 irradiance=1 Pmpp=2.5 %cutin=0.1 %cutout=0.1
New PVSystem.PV_190 phases=3 conn = delta bus1=G2100EG9700_N292283_sec_3.1.2.3 kV=0.48 kVA=6.6 irradiance=1 Pmpp=5.5 %cutin=0.1 %cutout=0.1
New PVSystem.PV_191 phases=1 bus1=G2100EM6500_N292425_sec_3.3 kV=0.24 kVA=2.52 irradiance=1 Pmpp=2.1 %cutin=0.1 %cutout=0.1
New PVSystem.PV_192 phases=1 bus1=G2100EN2200_N292457_sec_24.3 kV=0.24 kVA=3.12 irradiance=1 Pmpp=2.6 %cutin=0.1 %cutout=0.1
New PVSystem.PV_193 phases=3 conn = delta bus1=G2100FG1700_N292304_sec_9.1.2.3 kV=0.48 kVA=12.36 irradiance=1 Pmpp=10.3 %cutin=0.1 %cutout=0.1
New PVSystem.PV_194 phases=1 bus1=G2100GM9700_N292423_sec_3.3 kV=0.24 kVA=1.2 irradiance=1 Pmpp=1 %cutin=0.1 %cutout=0.1
New PVSystem.PV_195 phases=1 bus1=G2100GN2400_N292466_sec_1.1 kV=0.24 kVA=3.72 irradiance=1 Pmpp=3.1 %cutin=0.1 %cutout=0.1
New PVSystem.PV_196 phases=1 bus1=G2100HM9900_N292433_sec_4.3 kV=0.24 kVA=2.88 irradiance=1 Pmpp=2.4 %cutin=0.1 %cutout=0.1
New PVSystem.PV_197 phases=1 bus1=G2100HM9900_N292433_sec_14.3 kV=0.24 kVA=0.24 irradiance=1 Pmpp=0.2 %cutin=0.1 %cutout=0.1
New PVSystem.PV_198 phases=1 bus1=G2100HN5600_N292453_sec_66.3 kV=0.24 kVA=2.28 irradiance=1 Pmpp=1.9 %cutin=0.1 %cutout=0.1
New PVSystem.PV_199 phases=1 bus1=G2100IL1000_N292412_sec_40.3 kV=0.24 kVA=1.32 irradiance=1 Pmpp=1.1 %cutin=0.1 %cutout=0.1
New PVSystem.PV_200 phases=1 bus1=G2100IN2700_N292475_sec_16.3 kV=0.24 kVA=3.3272 irradiance=1 Pmpp=2.7727 %cutin=0.1 %cutout=0.1
...
